Version 4
SHEET 1 1512 724
WIRE -624 -176 -624 -240
WIRE 128 -160 32 -160
WIRE 272 -160 192 -160
WIRE 592 -160 512 -160
WIRE 736 -160 656 -160
WIRE -624 -64 -624 -96
WIRE -464 -64 -624 -64
WIRE 32 -64 32 -160
WIRE 112 -64 32 -64
WIRE 272 -64 272 -160
WIRE 272 -64 192 -64
WIRE 512 -64 512 -160
WIRE 592 -64 512 -64
WIRE 736 -64 736 -160
WIRE 736 -64 672 -64
WIRE -624 -32 -624 -64
WIRE -464 -32 -464 -64
WIRE 144 96 144 64
WIRE -288 112 -288 80
WIRE -288 112 -384 112
WIRE -112 112 -288 112
WIRE 32 112 32 -64
WIRE 32 112 -32 112
WIRE 112 112 32 112
WIRE 624 112 624 80
WIRE -624 128 -624 48
WIRE 272 128 272 -64
WIRE 272 128 176 128
WIRE 352 128 272 128
WIRE 512 128 512 -64
WIRE 512 128 432 128
WIRE 592 128 512 128
WIRE 1008 128 1008 80
WIRE -384 144 -384 112
WIRE 112 144 64 144
WIRE 736 144 736 -64
WIRE 736 144 656 144
WIRE 816 144 736 144
WIRE 976 144 896 144
WIRE 592 160 512 160
WIRE 1120 160 1040 160
WIRE 1200 160 1120 160
WIRE 1376 160 1280 160
WIRE 1456 160 1376 160
WIRE 976 176 896 176
WIRE -192 192 -288 192
WIRE -48 192 -112 192
WIRE 32 192 -48 192
WIRE 64 192 64 144
WIRE 64 192 32 192
WIRE 144 208 144 160
WIRE 1376 224 1376 160
WIRE 624 240 624 176
WIRE 1008 240 1008 192
WIRE -384 256 -384 224
WIRE -288 256 -288 192
WIRE -288 256 -384 256
WIRE -48 256 -48 192
WIRE 32 256 32 192
WIRE 512 256 512 160
WIRE -288 304 -288 256
WIRE 1232 320 1232 272
WIRE 896 352 896 176
WIRE 976 352 896 352
WIRE 1120 352 1120 160
WIRE 1120 352 1056 352
WIRE 1376 368 1376 304
WIRE -48 400 -48 320
WIRE 32 400 32 336
WIRE 736 448 640 448
WIRE 896 448 896 352
WIRE 896 448 816 448
WIRE 976 448 896 448
WIRE 1232 448 1232 400
WIRE 1232 448 1056 448
WIRE 1232 496 1232 448
WIRE 640 528 640 448
WIRE 1232 640 1232 576
FLAG -48 400 0
FLAG 32 400 0
FLAG -464 -32 0
FLAG -624 -240 +12
FLAG -624 128 -12
FLAG 144 64 +12
FLAG 144 208 -12
FLAG -288 80 in+
FLAG -288 304 in-
FLAG 624 80 +12
FLAG 624 240 -12
FLAG 512 256 0
FLAG 640 528 0
FLAG 1232 272 +12
FLAG 1232 640 -12
FLAG 1456 160 out
FLAG 1376 368 0
FLAG 1008 80 -12
FLAG 1008 240 +12
SYMBOL OpAmps\\OP27 144 64 R0
SYMATTR InstName U1
SYMBOL res -16 96 R90
WINDOW 0 0 56 VBottom 2
WINDOW 3 32 56 VTop 2
SYMATTR InstName R1
SYMATTR Value 10k
SYMBOL res -96 176 R90
WINDOW 0 0 56 VBottom 2
WINDOW 3 32 56 VTop 2
SYMATTR InstName R2
SYMATTR Value 10k
SYMBOL res 48 352 R180
WINDOW 0 36 76 Left 2
WINDOW 3 36 40 Left 2
SYMATTR InstName R3
SYMATTR Value 100k
SYMBOL res 96 -48 R270
WINDOW 0 32 56 VTop 2
WINDOW 3 0 56 VBottom 2
SYMATTR InstName R4
SYMATTR Value 100k
SYMBOL res 336 144 R270
WINDOW 0 32 56 VTop 2
WINDOW 3 0 56 VBottom 2
SYMATTR InstName R5
SYMATTR Value 1k
SYMBOL cap -32 320 R180
WINDOW 0 24 56 Left 2
WINDOW 3 24 8 Left 2
SYMATTR InstName C1
SYMATTR Value 1µ
SYMBOL cap 128 -144 R270
WINDOW 0 32 32 VTop 2
WINDOW 3 0 32 VBottom 2
SYMATTR InstName C2
SYMATTR Value 1µ
SYMBOL voltage -384 128 R0
WINDOW 123 24 44 Left 2
WINDOW 39 0 0 Left 0
SYMATTR Value2 AC 0.1
SYMATTR InstName V1
SYMATTR Value ""
SYMBOL voltage -624 -192 R0
WINDOW 123 0 0 Left 0
WINDOW 39 0 0 Left 0
SYMATTR InstName V2
SYMATTR Value 12
SYMBOL voltage -624 -48 R0
WINDOW 123 0 0 Left 0
WINDOW 39 0 0 Left 0
SYMATTR InstName V3
SYMATTR Value 12
SYMBOL OpAmps\\opamp2 624 80 R0
SYMATTR InstName U2
SYMATTR Value TL072
SYMBOL OpAmps\\opamp2 1008 224 M180
SYMATTR InstName U3
SYMATTR Value TL072
SYMBOL res 688 -80 R90
WINDOW 0 0 56 VBottom 2
WINDOW 3 32 56 VTop 2
SYMATTR InstName R6
SYMATTR Value 200k
SYMBOL cap 656 -176 R90
WINDOW 0 0 32 VBottom 2
WINDOW 3 32 32 VTop 2
SYMATTR InstName C3
SYMATTR Value 1µ
SYMBOL res 832 432 R90
WINDOW 0 0 56 VBottom 2
WINDOW 3 32 56 VTop 2
SYMATTR InstName R7
SYMATTR Value 3.3k
SYMBOL res 912 128 R90
WINDOW 0 0 56 VBottom 2
WINDOW 3 32 56 VTop 2
SYMATTR InstName R8
SYMATTR Value 1k
SYMBOL res 1072 336 R90
WINDOW 0 0 56 VBottom 2
WINDOW 3 32 56 VTop 2
SYMATTR InstName R9
SYMATTR Value 5.6k
SYMBOL res 1072 432 R90
WINDOW 0 0 56 VBottom 2
WINDOW 3 32 56 VTop 2
SYMATTR InstName R10
SYMATTR Value 82k
SYMBOL res 1216 304 R0
SYMATTR InstName R11
SYMATTR Value 33k
SYMBOL res 1216 480 R0
SYMATTR InstName R12
SYMATTR Value 33k
SYMBOL res 1296 144 R90
WINDOW 0 0 56 VBottom 2
WINDOW 3 32 56 VTop 2
SYMATTR InstName R13
SYMATTR Value 470
SYMBOL res 1360 208 R0
SYMATTR InstName R14
SYMATTR Value 1Meg
TEXT -656 392 Left 2 !.lib tl72.lib
TEXT -656 432 Left 2 !.ac lin 1000 4 100
